Version 4
SHEET 1 2976 1000
WIRE -304 -240 -528 -240
WIRE 336 -240 112 -240
WIRE 976 -240 752 -240
WIRE 1616 -240 1392 -240
WIRE -528 -144 -528 -240
WIRE -304 -144 -304 -240
WIRE 112 -144 112 -240
WIRE 336 -144 336 -240
WIRE 752 -144 752 -240
WIRE 976 -144 976 -240
WIRE 1392 -144 1392 -240
WIRE 1616 -144 1616 -240
WIRE -576 -64 -720 -64
WIRE 64 -64 -80 -64
WIRE 704 -64 560 -64
WIRE 1344 -64 1200 -64
WIRE -720 -32 -720 -64
WIRE -80 -32 -80 -64
WIRE 560 -32 560 -64
WIRE 1200 -32 1200 -64
WIRE -720 80 -720 48
WIRE -528 80 -528 -48
WIRE -528 80 -720 80
WIRE -304 80 -304 -64
WIRE -304 80 -528 80
WIRE -80 80 -80 48
WIRE 112 80 112 -48
WIRE 112 80 -80 80
WIRE 336 80 336 -64
WIRE 336 80 112 80
WIRE 560 80 560 48
WIRE 752 80 752 -48
WIRE 752 80 560 80
WIRE 976 80 976 -64
WIRE 976 80 752 80
WIRE 1200 80 1200 48
WIRE 1392 80 1392 -48
WIRE 1392 80 1200 80
WIRE 1616 80 1616 -64
WIRE 1616 80 1392 80
WIRE -528 128 -528 80
WIRE 112 128 112 80
WIRE 752 128 752 80
WIRE 1392 128 1392 80
WIRE -304 160 -528 160
WIRE 336 160 112 160
WIRE 976 160 752 160
WIRE 1616 160 1392 160
WIRE -528 256 -528 160
WIRE -304 256 -304 160
WIRE 112 256 112 160
WIRE 336 256 336 160
WIRE 752 256 752 160
WIRE 976 256 976 160
WIRE 1392 256 1392 160
WIRE 1616 256 1616 160
WIRE -576 336 -720 336
WIRE 64 336 -80 336
WIRE 704 336 560 336
WIRE 1344 336 1200 336
WIRE -720 368 -720 336
WIRE -80 368 -80 336
WIRE 560 368 560 336
WIRE 1200 368 1200 336
WIRE -720 480 -720 448
WIRE -528 480 -528 352
WIRE -528 480 -720 480
WIRE -304 480 -304 336
WIRE -304 480 -528 480
WIRE -80 480 -80 448
WIRE 112 480 112 352
WIRE 112 480 -80 480
WIRE 336 480 336 336
WIRE 336 480 112 480
WIRE 560 480 560 448
WIRE 752 480 752 352
WIRE 752 480 560 480
WIRE 976 480 976 336
WIRE 976 480 752 480
WIRE 1200 480 1200 448
WIRE 1392 480 1392 352
WIRE 1392 480 1200 480
WIRE 1616 480 1616 336
WIRE 1616 480 1392 480
WIRE -528 528 -528 480
WIRE 112 528 112 480
WIRE 752 528 752 480
WIRE 1392 528 1392 480
WIRE -304 560 -528 560
WIRE 336 560 112 560
WIRE 976 560 752 560
WIRE -528 656 -528 560
WIRE -304 656 -304 560
WIRE 112 656 112 560
WIRE 336 656 336 560
WIRE 752 656 752 560
WIRE 976 656 976 560
WIRE -576 736 -720 736
WIRE 64 736 -80 736
WIRE 704 736 560 736
WIRE -720 768 -720 736
WIRE -80 768 -80 736
WIRE 560 768 560 736
WIRE -720 880 -720 848
WIRE -528 880 -528 752
WIRE -528 880 -720 880
WIRE -304 880 -304 736
WIRE -304 880 -528 880
WIRE -80 880 -80 848
WIRE 112 880 112 752
WIRE 112 880 -80 880
WIRE 336 880 336 736
WIRE 336 880 112 880
WIRE 560 880 560 848
WIRE 752 880 752 752
WIRE 752 880 560 880
WIRE 976 880 976 736
WIRE 976 880 752 880
WIRE -528 928 -528 880
WIRE 112 928 112 880
WIRE 752 928 752 880
FLAG -528 128 0
FLAG 112 128 0
FLAG 752 128 0
FLAG 1392 128 0
FLAG -528 528 0
FLAG 112 528 0
FLAG 752 528 0
FLAG 1392 528 0
FLAG -528 928 0
FLAG 112 928 0
FLAG 752 928 0
SYMBOL nmos -576 -144 R0
SYMATTR InstName M1
SYMATTR Value MSA12080A
SYMATTR Prefix X
SYMBOL voltage -720 -48 R0
WINDOW 123 0 0 Left 0
WINDOW 39 0 0 Left 0
SYMATTR InstName V1
SYMATTR Value 4
SYMBOL voltage -304 -160 R0
WINDOW 123 0 0 Left 0
WINDOW 39 0 0 Left 0
SYMATTR InstName V2
SYMATTR Value PWL(0 0 20 20)
SYMBOL nmos 64 -144 R0
SYMATTR InstName M2
SYMATTR Value MSA12080A
SYMATTR Prefix X
SYMBOL voltage -80 -48 R0
WINDOW 123 0 0 Left 0
WINDOW 39 0 0 Left 0
SYMATTR InstName V3
SYMATTR Value 5.6
SYMBOL voltage 336 -160 R0
WINDOW 123 0 0 Left 0
WINDOW 39 0 0 Left 0
SYMATTR InstName V4
SYMATTR Value PWL(0 0 20 20)
SYMBOL nmos 704 -144 R0
SYMATTR InstName M3
SYMATTR Value MSA12080A
SYMATTR Prefix X
SYMBOL voltage 560 -48 R0
WINDOW 123 0 0 Left 0
WINDOW 39 0 0 Left 0
SYMATTR InstName V5
SYMATTR Value 7.2
SYMBOL voltage 976 -160 R0
WINDOW 123 0 0 Left 0
WINDOW 39 0 0 Left 0
SYMATTR InstName V6
SYMATTR Value PWL(0 0 20 20)
SYMBOL nmos 1344 -144 R0
SYMATTR InstName M4
SYMATTR Value MSA12080A
SYMATTR Prefix X
SYMBOL voltage 1200 -48 R0
WINDOW 123 0 0 Left 0
WINDOW 39 0 0 Left 0
SYMATTR InstName V7
SYMATTR Value 8.8
SYMBOL voltage 1616 -160 R0
WINDOW 123 0 0 Left 0
WINDOW 39 0 0 Left 0
SYMATTR InstName V8
SYMATTR Value PWL(0 0 20 20)
SYMBOL nmos -576 256 R0
SYMATTR InstName M5
SYMATTR Value MSA12080A
SYMATTR Prefix X
SYMBOL voltage -720 352 R0
WINDOW 123 0 0 Left 0
WINDOW 39 0 0 Left 0
SYMATTR InstName V9
SYMATTR Value 10.4
SYMBOL voltage -304 240 R0
WINDOW 123 0 0 Left 0
WINDOW 39 0 0 Left 0
SYMATTR InstName V10
SYMATTR Value PWL(0 0 20 20)
SYMBOL nmos 64 256 R0
SYMATTR InstName M6
SYMATTR Value MSA12080A
SYMATTR Prefix X
SYMBOL voltage -80 352 R0
WINDOW 123 0 0 Left 0
WINDOW 39 0 0 Left 0
SYMATTR InstName V11
SYMATTR Value 12
SYMBOL voltage 336 240 R0
WINDOW 123 0 0 Left 0
WINDOW 39 0 0 Left 0
SYMATTR InstName V12
SYMATTR Value PWL(0 0 20 20)
SYMBOL nmos 704 256 R0
SYMATTR InstName M7
SYMATTR Value MSA12080A
SYMATTR Prefix X
SYMBOL voltage 560 352 R0
WINDOW 123 0 0 Left 0
WINDOW 39 0 0 Left 0
SYMATTR InstName V13
SYMATTR Value 13.6
SYMBOL voltage 976 240 R0
WINDOW 123 0 0 Left 0
WINDOW 39 0 0 Left 0
SYMATTR InstName V14
SYMATTR Value PWL(0 0 20 20)
SYMBOL nmos 1344 256 R0
SYMATTR InstName M8
SYMATTR Value MSA12080A
SYMATTR Prefix X
SYMBOL voltage 1200 352 R0
WINDOW 123 0 0 Left 0
WINDOW 39 0 0 Left 0
SYMATTR InstName V15
SYMATTR Value 15.2
SYMBOL voltage 1616 240 R0
WINDOW 123 0 0 Left 0
WINDOW 39 0 0 Left 0
SYMATTR InstName V16
SYMATTR Value PWL(0 0 20 20)
SYMBOL nmos -576 656 R0
SYMATTR InstName M9
SYMATTR Value MSA12080A
SYMATTR Prefix X
SYMBOL voltage -720 752 R0
WINDOW 123 0 0 Left 0
WINDOW 39 0 0 Left 0
SYMATTR InstName V17
SYMATTR Value 16.8
SYMBOL voltage -304 640 R0
WINDOW 123 0 0 Left 0
WINDOW 39 0 0 Left 0
SYMATTR InstName V18
SYMATTR Value PWL(0 0 20 20)
SYMBOL nmos 64 656 R0
SYMATTR InstName M10
SYMATTR Value MSA12080A
SYMATTR Prefix X
SYMBOL voltage -80 752 R0
WINDOW 123 0 0 Left 0
WINDOW 39 0 0 Left 0
SYMATTR InstName V19
SYMATTR Value 18.4
SYMBOL voltage 336 640 R0
WINDOW 123 0 0 Left 0
WINDOW 39 0 0 Left 0
SYMATTR InstName V20
SYMATTR Value PWL(0 0 20 20)
SYMBOL nmos 704 656 R0
SYMATTR InstName M11
SYMATTR Value MSA12080A
SYMATTR Prefix X
SYMBOL voltage 560 752 R0
WINDOW 123 0 0 Left 0
WINDOW 39 0 0 Left 0
SYMATTR InstName V21
SYMATTR Value 20
SYMBOL voltage 976 640 R0
WINDOW 123 0 0 Left 0
WINDOW 39 0 0 Left 0
SYMATTR InstName V22
SYMATTR Value PWL(0 0 20 20)
TEXT -752 152 Left 2 !.tran 20
TEXT -712 -472 Left 2 !.inc MSA12080A.lib
TEXT -712 -512 Left 2 !.param T = 25C
TEXT -712 -440 Left 2 !.inc Cree Power C4D Packaged SPICE Model Library.lib
TEXT -712 -408 Left 2 !.inc Cree Power CPW4 Bare Die SPICE Model Library.lib
