Version 4
SHEET 1 880 680
WIRE 256 96 48 96
WIRE 48 128 48 96
WIRE 256 144 256 96
WIRE 48 240 48 208
WIRE 144 240 48 240
WIRE 256 240 256 208
WIRE 256 240 144 240
WIRE 144 256 144 240
FLAG 144 256 0
FLAG 256 96 L
SYMBOL AutoGenerated\\UT_L 256 176 R90
SYMATTR InstName U1
SYMBOL current 48 208 R180
WINDOW 0 24 80 Left 2
WINDOW 3 24 0 Left 2
WINDOW 123 0 0 Left 2
WINDOW 39 0 0 Left 2
SYMATTR InstName I1
SYMATTR Value PWL(0 0 80 80)
TEXT 8 280 Left 2 !.tran 0 80 0
