Version 4
SHEET 1 2916 680
WIRE 896 -720 528 -720
WIRE 1104 -720 1024 -720
WIRE 1280 -720 1184 -720
WIRE 1408 -720 1360 -720
WIRE 528 -688 528 -720
WIRE 672 -688 528 -688
WIRE 672 -672 672 -688
WIRE 672 -560 672 -592
WIRE 736 -560 672 -560
WIRE 528 -544 528 -688
WIRE 736 -496 736 -560
WIRE 752 -496 736 -496
WIRE 528 -448 528 -464
WIRE 528 -336 528 -448
WIRE 784 -336 784 -496
WIRE 784 -336 528 -336
WIRE 528 -288 528 -336
WIRE 1408 -240 1408 -720
WIRE 528 -192 528 -288
WIRE 112 -112 32 -112
WIRE 272 -112 192 -112
WIRE 432 -112 352 -112
WIRE 480 -112 432 -112
WIRE 32 -48 32 -112
WIRE 32 208 32 32
WIRE 528 208 528 -96
WIRE 528 208 32 208
WIRE 672 208 528 208
WIRE 1408 208 1408 -160
WIRE 1408 208 752 208
WIRE 528 240 528 208
FLAG 432 -112 Gate
FLAG 528 -288 Drain
FLAG 528 240 0
SYMBOL voltage 1408 -256 R0
WINDOW 123 0 0 Left 2
WINDOW 39 0 0 Left 2
SYMATTR InstName VBUS
SYMATTR Value 600
SYMBOL res 368 -128 R90
WINDOW 0 0 56 VBottom 2
WINDOW 3 32 56 VTop 2
SYMATTR InstName RG
SYMATTR Value 5
SYMBOL ind 1200 -736 R90
WINDOW 0 5 56 VBottom 2
WINDOW 3 32 56 VTop 2
SYMATTR InstName LBUS
SYMATTR Value {L_busval}
SYMBOL res 1376 -736 R90
WINDOW 0 0 56 VBottom 2
WINDOW 3 32 56 VTop 2
SYMATTR InstName RBUS
SYMATTR Value 1.64m
SYMBOL ind 96 -96 R270
WINDOW 0 32 56 VTop 2
WINDOW 3 5 56 VBottom 2
SYMATTR InstName ESL_G
SYMATTR Value 12.87n
SYMBOL voltage 32 -64 M0
WINDOW 123 0 0 Left 2
WINDOW 39 24 44 Left 2
WINDOW 3 -1448 60 Invisible 2
SYMATTR Value PWL(0u {Voff} {Start} {Voff} {RiseT1} {Von} {PulseT} {Von} {FallT} {Voff} {offT} {Voff} {RiseT2} {Von} {OnT} {Von} {FallT2} {Voff})
SYMATTR InstName Vpulse
SYMBOL C4D10120A 768 -560 R270
SYMATTR InstName U1
SYMBOL nmos 480 -192 R0
SYMATTR InstName M1
SYMATTR Value MSA12080A
SYMATTR Prefix X
SYMBOL res 768 192 R90
WINDOW 0 0 56 VBottom 2
WINDOW 3 32 56 VTop 2
SYMATTR InstName RSHUNT
SYMATTR Value 100.8m
SYMBOL Skin_Effect 960 -720 R180
SYMATTR InstName X1
SYMBOL ind 656 -688 R0
WINDOW 3 36 80 Invisible 2
SYMATTR Value {Ldiode}
SYMATTR InstName Ldiode
SYMBOL AutoGenerated\\UT_L 528 -496 R0
SYMATTR InstName U2
TEXT -912 -576 Left 2 !.inc MSA12080A.lib
TEXT -920 -424 Left 2 !.param Start = 4.249u
TEXT -920 -168 Left 2 !.param Voff=-5.3
TEXT -920 -136 Left 2 !.param Von=21.3
TEXT -920 -392 Left 2 !.param RiseT1=Start+100n
TEXT -912 -536 Left 2 !.options method=gear
TEXT -912 -496 Left 2 !.inc Cree Power C4D Packaged SPICE Model Library.lib
TEXT -912 -464 Left 2 !.inc Cree Power CPW4 Bare Die SPICE Model Library.lib
TEXT -96 152 Left 2 !.tran 50u
TEXT -912 -616 Left 2 !.param T = 25C
TEXT -1144 -424 Left 2 ;.param Start = 1u
TEXT -920 -8 Left 2 !.param Ldiode = 6n
TEXT -920 -80 Left 2 !.param L_busval = 42n-8.064291n+10n
TEXT -920 88 Left 2 !.options plotabstol 1e-12
TEXT -920 -360 Left 2 !.param PulseT = RiseT1+20.225u-{slewshift}
TEXT -920 -328 Left 2 !.param FallT = PulseT + 2n + {slewshift}
TEXT -920 -296 Left 2 !.param OffT = FallT + 5.272u - {slewshift}
TEXT -920 -264 Left 2 !.param RiseT2 = OffT + 2n + {slewshift}
TEXT -920 -232 Left 2 !.param OnT = RiseT2 + 5.34u - {slewshift}
TEXT -920 -200 Left 2 !.param FallT2 = OnT + 2n + {slewshift}
TEXT -920 208 Left 2 !.param slewshift = 1.5n
