Version 4
SHEET 1 880 680
WIRE 368 96 80 96
WIRE 368 144 368 96
WIRE 80 160 80 96
WIRE 80 304 80 240
WIRE 240 304 80 304
WIRE 368 304 368 272
WIRE 368 304 240 304
WIRE 240 336 240 304
FLAG 240 336 0
SYMBOL Skin_Effect 368 208 R90
SYMATTR InstName X1
SYMBOL voltage 80 144 R0
WINDOW 123 24 124 Left 2
WINDOW 39 0 0 Left 2
SYMATTR Value2 AC 1
SYMATTR InstName V1
SYMATTR Value ""
TEXT 432 88 Left 2 !.ac dec 50 100 1e+10
