* C:\Users\usr\Documents\UT_Framework (matlab)\SPICE_Files\epc2022_dpt.asc
Lcomm N002 d 623u
D1 d N002 D
Lg g N004 1.6n
Rsh 0 N005 0.025
XM1 d N004 0 EPC2022
C1 N001 N005 600u ic=54
R0 P001 N001 0.15
L0 P001 N002 8n
V1 N003 0 PWL file=gate.csv
Rg g N003 100u
cj N002 d 400p
.model D D
.lib C:\Users\usr\Documents\LTspiceXVII\lib\cmp\standard.dio
.lib device_models/EPC2022.lib
.tran 0 310u 0 1n
.lib device_models/gatedriver.ckt
.backanno
.end